Representative Networks Models/Representative Networks Models/matpower_semiurban.m
function mpc = matpower_semiurban
%Please see CASEFORMAT for details on the case file format.
% MATPOWER Case Format : Version 2
mpc.version = '2';
%-----  Power Flow Data  -----%%
% system MVA base
mpc.baseMVA = 1;
% bus data
%bus_i type Pd	Qd Gs Bs area Vm Va baseKV zone	Vmax Vmin
mpc.bus = [
1	3	0	0	0	0	1	1	0	132	1	1.1	0.9
2	1	0.0008	0.00024	0	0	1	1	0	0.4	1	1.1	0.9
3	1	0.0008	0.00024	0	0	1	1	0	0.4	1	1.1	0.9
4	1	0.0008	0.00024	0	0	1	1	0	0.4	1	1.1	0.9
5	1	0.0008	0.00024	0	0	1	1	0	0.4	1	1.1	0.9
6	1	0.0008	0.00024	0	0	1	1	0	0.4	1	1.1	0.9
7	1	0.0008	0.00024	0	0	1	1	0	0.4	1	1.1	0.9
8	1	0.0008	0.00024	0	0	1	1	0	0.4	1	1.1	0.9
9	1	0.0008	0.00024	0	0	1	1	0	0.4	1	1.1	0.9
10	1	0.0008	0.00024	0	0	1	1	0	0.4	1	1.1	0.9
11	1	0.0008	0.00024	0	0	1	1	0	0.4	1	1.1	0.9
12	1	0.0008	0.00024	0	0	1	1	0	0.4	1	1.1	0.9
13	1	0.0008	0.00024	0	0	1	1	0	0.4	1	1.1	0.9
14	1	0.0008	0.00024	0	0	1	1	0	0.4	1	1.1	0.9
15	1	0.0008	0.00024	0	0	1	1	0	0.4	1	1.1	0.9
16	1	0.0008	0.00024	0	0	1	1	0	0.4	1	1.1	0.9
17	1	0.0008	0.00024	0	0	1	1	0	0.4	1	1.1	0.9
18	1	0.0008	0.00024	0	0	1	1	0	0.4	1	1.1	0.9
19	1	0.0008	0.00024	0	0	1	1	0	0.4	1	1.1	0.9
20	1	0.0008	0.00024	0	0	1	1	0	0.4	1	1.1	0.9
21	1	0.0008	0.00024	0	0	1	1	0	0.4	1	1.1	0.9
22	1	0.0008	0.00024	0	0	1	1	0	0.4	1	1.1	0.9
23	1	0.0008	0.00024	0	0	1	1	0	0.4	1	1.1	0.9
24	1	0.0008	0.00024	0	0	1	1	0	0.4	1	1.1	0.9
25	1	0.0008	0.00024	0	0	1	1	0	0.4	1	1.1	0.9
26	1	0.0008	0.00024	0	0	1	1	0	0.4	1	1.1	0.9
27	1	0.0008	0.00024	0	0	1	1	0	0.4	1	1.1	0.9
28	1	0.0008	0.00024	0	0	1	1	0	0.4	1	1.1	0.9
29	1	0.0008	0.00024	0	0	1	1	0	0.4	1	1.1	0.9
30	1	0.0008	0.00024	0	0	1	1	0	0.4	1	1.1	0.9
31	1	0.0008	0.00024	0	0	1	1	0	0.4	1	1.1	0.9
32	1	0.0008	0.00024	0	0	1	1	0	0.4	1	1.1	0.9
33	1	0.0008	0.00024	0	0	1	1	0	0.4	1	1.1	0.9
34	1	0.0008	0.00024	0	0	1	1	0	0.4	1	1.1	0.9
35	1	0.0008	0.00024	0	0	1	1	0	0.4	1	1.1	0.9
36	1	0.0008	0.00024	0	0	1	1	0	0.4	1	1.1	0.9
37	1	0.0008	0.00024	0	0	1	1	0	0.4	1	1.1	0.9
38	1	0.0008	0.00024	0	0	1	1	0	0.4	1	1.1	0.9
39	1	0.0008	0.00024	0	0	1	1	0	0.4	1	1.1	0.9
40	1	0.0008	0.00024	0	0	1	1	0	0.4	1	1.1	0.9
41	1	0.0008	0.00024	0	0	1	1	0	0.4	1	1.1	0.9
42	1	0.0008	0.00024	0	0	1	1	0	0.4	1	1.1	0.9
43	1	0.0008	0.00024	0	0	1	1	0	0.4	1	1.1	0.9
44	1	0.0008	0.00024	0	0	1	1	0	0.4	1	1.1	0.9
45	1	0.0008	0.00024	0	0	1	1	0	0.4	1	1.1	0.9
46	1	0.0008	0.00024	0	0	1	1	0	0.4	1	1.1	0.9
47	1	0.0008	0.00024	0	0	1	1	0	0.4	1	1.1	0.9
48	1	0.0008	0.00024	0	0	1	1	0	0.4	1	1.1	0.9
49	1	0.0008	0.00024	0	0	1	1	0	0.4	1	1.1	0.9
50	1	0.0008	0.00024	0	0	1	1	0	0.4	1	1.1	0.9
51	1	0.0008	0.00024	0	0	1	1	0	0.4	1	1.1	0.9
52	1	0.0008	0.00024	0	0	1	1	0	0.4	1	1.1	0.9
53	1	0.0008	0.00024	0	0	1	1	0	0.4	1	1.1	0.9
54	1	0.0008	0.00024	0	0	1	1	0	0.4	1	1.1	0.9
55	1	0.0008	0.00024	0	0	1	1	0	0.4	1	1.1	0.9
56	1	0.0008	0.00024	0	0	1	1	0	0.4	1	1.1	0.9
57	1	0.0008	0.00024	0	0	1	1	0	0.4	1	1.1	0.9
58	1	0.0008	0.00024	0	0	1	1	0	0.4	1	1.1	0.9
59	1	0.0008	0.00024	0	0	1	1	0	0.4	1	1.1	0.9
60	1	0.0008	0.00024	0	0	1	1	0	0.4	1	1.1	0.9
61	1	0.0008	0.00024	0	0	1	1	0	0.4	1	1.1	0.9
62	1	0.0008	0.00024	0	0	1	1	0	0.4	1	1.1	0.9
63	1	0.0008	0.00024	0	0	1	1	0	0.4	1	1.1	0.9
64	1	0.0008	0.00024	0	0	1	1	0	0.4	1	1.1	0.9
65	1	0.0008	0.00024	0	0	1	1	0	0.4	1	1.1	0.9
66	1	0.0008	0.00024	0	0	1	1	0	0.4	1	1.1	0.9
67	1	0.0008	0.00024	0	0	1	1	0	0.4	1	1.1	0.9
68	1	0.0008	0.00024	0	0	1	1	0	0.4	1	1.1	0.9
69	1	0.0008	0.00024	0	0	1	1	0	0.4	1	1.1	0.9
70	1	0.0008	0.00024	0	0	1	1	0	0.4	1	1.1	0.9
71	1	0.0008	0.00024	0	0	1	1	0	0.4	1	1.1	0.9
72	1	0.0008	0.00024	0	0	1	1	0	0.4	1	1.1	0.9
73	1	0.0008	0.00024	0	0	1	1	0	0.4	1	1.1	0.9
74	1	0.0008	0.00024	0	0	1	1	0	0.4	1	1.1	0.9
75	1	0.0008	0.00024	0	0	1	1	0	0.4	1	1.1	0.9
76	1	0.0008	0.00024	0	0	1	1	0	0.4	1	1.1	0.9
77	1	0.0008	0.00024	0	0	1	1	0	0.4	1	1.1	0.9
78	1	0.0008	0.00024	0	0	1	1	0	0.4	1	1.1	0.9
79	1	0.0008	0.00024	0	0	1	1	0	0.4	1	1.1	0.9
80	1	0.0008	0.00024	0	0	1	1	0	0.4	1	1.1	0.9
81	1	0.0008	0.00024	0	0	1	1	0	0.4	1	1.1	0.9
82	1	0.0008	0.00024	0	0	1	1	0	0.4	1	1.1	0.9
83	1	0.0008	0.00024	0	0	1	1	0	0.4	1	1.1	0.9
84	1	0.0008	0.00024	0	0	1	1	0	0.4	1	1.1	0.9
85	1	0.0008	0.00024	0	0	1	1	0	0.4	1	1.1	0.9
86	1	0.0008	0.00024	0	0	1	1	0	0.4	1	1.1	0.9
87	1	0.0008	0.00024	0	0	1	1	0	0.4	1	1.1	0.9
88	1	0.0008	0.00024	0	0	1	1	0	0.4	1	1.1	0.9
89	1	0.0008	0.00024	0	0	1	1	0	0.4	1	1.1	0.9
90	1	0.0008	0.00024	0	0	1	1	0	0.4	1	1.1	0.9
91	1	0.0008	0.00024	0	0	1	1	0	0.4	1	1.1	0.9
92	1	0.0008	0.00024	0	0	1	1	0	0.4	1	1.1	0.9
93	1	0.0008	0.00024	0	0	1	1	0	0.4	1	1.1	0.9
94	1	0.0008	0.00024	0	0	1	1	0	0.4	1	1.1	0.9
95	1	0.0008	0.00024	0	0	1	1	0	0.4	1	1.1	0.9
96	1	0.0008	0.00024	0	0	1	1	0	0.4	1	1.1	0.9
97	1	0.0008	0.00024	0	0	1	1	0	0.4	1	1.1	0.9
98	1	0.0008	0.00024	0	0	1	1	0	0.4	1	1.1	0.9
99	1	0.0008	0.00024	0	0	1	1	0	0.4	1	1.1	0.9
100	1	0.0008	0.00024	0	0	1	1	0	0.4	1	1.1	0.9
101	1	0.0008	0.00024	0	0	1	1	0	0.4	1	1.1	0.9
102	1	0.0008	0.00024	0	0	1	1	0	0.4	1	1.1	0.9
103	1	0.0008	0.00024	0	0	1	1	0	0.4	1	1.1	0.9
104	1	0.0008	0.00024	0	0	1	1	0	0.4	1	1.1	0.9
105	1	0.0008	0.00024	0	0	1	1	0	0.4	1	1.1	0.9
106	1	0.0008	0.00024	0	0	1	1	0	0.4	1	1.1	0.9
107	1	0.0008	0.00024	0	0	1	1	0	0.4	1	1.1	0.9
108	1	0.0008	0.00024	0	0	1	1	0	0.4	1	1.1	0.9
109	1	0.0008	0.00024	0	0	1	1	0	0.4	1	1.1	0.9
110	1	0.0008	0.00024	0	0	1	1	0	0.4	1	1.1	0.9
111	1	0.0008	0.00024	0	0	1	1	0	0.4	1	1.1	0.9
112	1	0.0008	0.00024	0	0	1	1	0	0.4	1	1.1	0.9
113	1	0.0008	0.00024	0	0	1	1	0	0.4	1	1.1	0.9
114	1	0.0008	0.00024	0	0	1	1	0	0.4	1	1.1	0.9
115	1	0.0016	0.00048	0	0	1	1	0	0.4	1	1.1	0.9
116	1	0.0016	0.00048	0	0	1	1	0	0.4	1	1.1	0.9
117	1	0.0016	0.00048	0	0	1	1	0	0.4	1	1.1	0.9
118	1	0.0016	0.00048	0	0	1	1	0	0.4	1	1.1	0.9
119	1	0.0016	0.00048	0	0	1	1	0	0.4	1	1.1	0.9
120	1	0.0016	0.00048	0	0	1	1	0	0.4	1	1.1	0.9
121	1	0.0016	0.00048	0	0	1	1	0	0.4	1	1.1	0.9
122	1	0.0016	0.00048	0	0	1	1	0	0.4	1	1.1	0.9
123	1	0.0016	0.00048	0	0	1	1	0	0.4	1	1.1	0.9
124	1	0.0016	0.00048	0	0	1	1	0	0.4	1	1.1	0.9
125	1	0.0016	0.00048	0	0	1	1	0	0.4	1	1.1	0.9
126	1	0.0016	0.00048	0	0	1	1	0	0.4	1	1.1	0.9
127	1	0.0016	0.00048	0	0	1	1	0	0.4	1	1.1	0.9
128	1	0.0016	0.00048	0	0	1	1	0	0.4	1	1.1	0.9
129	1	0.0016	0.00048	0	0	1	1	0	0.4	1	1.1	0.9
130	1	0.0016	0.00048	0	0	1	1	0	0.4	1	1.1	0.9
131	1	0.0016	0.00048	0	0	1	1	0	0.4	1	1.1	0.9
132	1	0.0016	0.00048	0	0	1	1	0	0.4	1	1.1	0.9
133	1	0.0016	0.00048	0	0	1	1	0	0.4	1	1.1	0.9
134	1	0.0016	0.00048	0	0	1	1	0	0.4	1	1.1	0.9
135	1	0.0016	0.00048	0	0	1	1	0	0.4	1	1.1	0.9
136	1	0.0016	0.00048	0	0	1	1	0	0.4	1	1.1	0.9
137	1	0.0016	0.00048	0	0	1	1	0	0.4	1	1.1	0.9
138	1	0.0016	0.00048	0	0	1	1	0	0.4	1	1.1	0.9
139	1	0.0016	0.00048	0	0	1	1	0	0.4	1	1.1	0.9
140	1	0.0016	0.00048	0	0	1	1	0	0.4	1	1.1	0.9
141	1	0.0016	0.00048	0	0	1	1	0	0.4	1	1.1	0.9
142	1	0.0016	0.00048	0	0	1	1	0	0.4	1	1.1	0.9
143	1	0.0016	0.00048	0	0	1	1	0	0.4	1	1.1	0.9
144	1	0.0016	0.00048	0	0	1	1	0	0.4	1	1.1	0.9
145	1	0.0016	0.00048	0	0	1	1	0	0.4	1	1.1	0.9
146	1	0.0016	0.00048	0	0	1	1	0	0.4	1	1.1	0.9
147	1	0.0016	0.00048	0	0	1	1	0	0.4	1	1.1	0.9
148	1	0.0016	0.00048	0	0	1	1	0	0.4	1	1.1	0.9
149	1	0.0096	0.00288	0	0	1	1	0	0.4	1	1.1	0.9
150	1	0.0016	0.00048	0	0	1	1	0	0.4	1	1.1	0.9
151	1	0.0016	0.00048	0	0	1	1	0	0.4	1	1.1	0.9
152	1	0.0016	0.00048	0	0	1	1	0	0.4	1	1.1	0.9
153	1	0.0016	0.00048	0	0	1	1	0	0.4	1	1.1	0.9
154	1	0.0016	0.00048	0	0	1	1	0	0.4	1	1.1	0.9
155	1	0.0016	0.00048	0	0	1	1	0	0.4	1	1.1	0.9
156	1	0.0016	0.00048	0	0	1	1	0	0.4	1	1.1	0.9
157	1	0.0016	0.00048	0	0	1	1	0	0.4	1	1.1	0.9
158	1	0.0016	0.00048	0	0	1	1	0	0.4	1	1.1	0.9
159	1	0.0016	0.00048	0	0	1	1	0	0.4	1	1.1	0.9
160	1	0.0016	0.00048	0	0	1	1	0	0.4	1	1.1	0.9
161	1	0.0016	0.00048	0	0	1	1	0	0.4	1	1.1	0.9
162	1	0.0016	0.00048	0	0	1	1	0	0.4	1	1.1	0.9
163	1	0.0016	0.00048	0	0	1	1	0	0.4	1	1.1	0.9
164	1	0.0016	0.00048	0	0	1	1	0	0.4	1	1.1	0.9
165	1	0.0016	0.00048	0	0	1	1	0	0.4	1	1.1	0.9
166	1	0.0016	0.00048	0	0	1	1	0	0.4	1	1.1	0.9
167	1	0.0016	0.00048	0	0	1	1	0	0.4	1	1.1	0.9
168	1	0.0016	0.00048	0	0	1	1	0	0.4	1	1.1	0.9
169	1	0.0016	0.00048	0	0	1	1	0	0.4	1	1.1	0.9
170	1	0.0016	0.00048	0	0	1	1	0	0.4	1	1.1	0.9
171	1	0.0016	0.00048	0	0	1	1	0	0.4	1	1.1	0.9
172	1	0.0016	0.00048	0	0	1	1	0	0.4	1	1.1	0.9
173	1	0.0016	0.00048	0	0	1	1	0	0.4	1	1.1	0.9
174	1	0.0016	0.00048	0	0	1	1	0	0.4	1	1.1	0.9
175	1	0.0016	0.00048	0	0	1	1	0	0.4	1	1.1	0.9
176	1	0.0016	0.00048	0	0	1	1	0	0.4	1	1.1	0.9
177	1	0.0016	0.00048	0	0	1	1	0	0.4	1	1.1	0.9
178	1	0.0016	0.00048	0	0	1	1	0	0.4	1	1.1	0.9
179	1	0.0016	0.00048	0	0	1	1	0	0.4	1	1.1	0.9
180	1	0.0016	0.00048	0	0	1	1	0	0.4	1	1.1	0.9
181	1	0.0016	0.00048	0	0	1	1	0	0.4	1	1.1	0.9
182	1	0.0016	0.00048	0	0	1	1	0	0.4	1	1.1	0.9
183	1	0.0016	0.00048	0	0	1	1	0	0.4	1	1.1	0.9
184	1	0.0016	0.00048	0	0	1	1	0	0.4	1	1.1	0.9
185	1	0.0016	0.00048	0	0	1	1	0	0.4	1	1.1	0.9
186	1	0.0016	0.00048	0	0	1	1	0	0.4	1	1.1	0.9
187	1	0.0016	0.00048	0	0	1	1	0	0.4	1	1.1	0.9
188	1	0.0016	0.00048	0	0	1	1	0	0.4	1	1.1	0.9
189	1	0.0016	0.00048	0	0	1	1	0	0.4	1	1.1	0.9
190	1	0.0016	0.00048	0	0	1	1	0	0.4	1	1.1	0.9
191	1	0.0016	0.00048	0	0	1	1	0	0.4	1	1.1	0.9
192	1	0.0016	0.00048	0	0	1	1	0	0.4	1	1.1	0.9
193	1	0.0016	0.00048	0	0	1	1	0	0.4	1	1.1	0.9
194	1	0.0016	0.00048	0	0	1	1	0	0.4	1	1.1	0.9
195	1	0.0016	0.00048	0	0	1	1	0	0.4	1	1.1	0.9
196	1	0.0016	0.00048	0	0	1	1	0	0.4	1	1.1	0.9
197	1	0.0016	0.00048	0	0	1	1	0	0.4	1	1.1	0.9
198	1	0.0016	0.00048	0	0	1	1	0	0.4	1	1.1	0.9
199	1	0.0016	0.00048	0	0	1	1	0	0.4	1	1.1	0.9
200	1	0.0016	0.00048	0	0	1	1	0	0.4	1	1.1	0.9
...
];
%% generator data
% bus Pg Qg Qmax Qmin Vg mBase status Pmax Pmin Pc1 Pc2 Qc1min Qc1max Qc2min Qc2max ramp_agc ramp_10 ramp_30 ramp_q apf
mpc.gen = [
1 0 0 1000 -1000 1.0 1 1 1000 0 0 0 0 0 0 0 0 0 0 0 0];
%% branch data
%fbus tbus	r x b rA rB rC rat ang status angmin angmax
mpc.branch = [
923	2731	0.138969	0.00992625	0	0.069282	0.069282	0.069282	0	0	1	-360	360
917	492	0.0396544	0.0123919	0	0.159349	0.159349	0.159349	0	0	1	-360	360
918	4872	0.0387106	0.00744438	0	0.176669	0.176669	0.176669	0	0	1	-360	360
919	3128	0.130862	0.0093475	0	0.069282	0.069282	0.069282	0	0	1	-360	360
920	2680	0.0470437	0.00904687	0	0.176669	0.176669	0.176669	0	0	1	-360	360
921	5198	0.127137	0.00908125	0	0.069282	0.069282	0.069282	0	0	1	-360	360
922	2222	0.0516831	0.00993875	0	0.176669	0.176669	0.176669	0	0	1	-360	360
924	75	0.0272169	0.00523406	0	0.176669	0.176669	0.176669	0	0	1	-360	360
925	1519	0.110519	0.00789438	0	0.069282	0.069282	0.069282	0	0	1	-360	360
926	453	0.0562262	0.0108125	0	0.176669	0.176669	0.176669	0	0	1	-360	360
927	2110	0.0248225	0.00775687	0	0.159349	0.159349	0.159349	0	0	1	-360	360
2	553	0.0189425	0.0108244	0	0.290985	0.290985	0.290985	0	0	1	-360	360
3	4350	0.1028	0.0073425	0	0.069282	0.069282	0.069282	0	0	1	-360	360
4	5053	0.159894	0.0114206	0	0.069282	0.069282	0.069282	0	0	1	-360	360
5	1591	0.253412	0.0181006	0	0.069282	0.069282	0.069282	0	0	1	-360	360
35	2741	0.0527688	0.0101481	0	0.176669	0.176669	0.176669	0	0	1	-360	360
36	3609	0.126294	0.00902062	0	0.069282	0.069282	0.069282	0	0	1	-360	360
37	3075	0.169606	0.012115	0	0.069282	0.069282	0.069282	0	0	1	-360	360
38	565	0.175131	0.0125094	0	0.069282	0.069282	0.069282	0	0	1	-360	360
39	1907	0.03527	0.0067825	0	0.176669	0.176669	0.176669	0	0	1	-360	360
40	4416	0.0460325	0.0088525	0	0.176669	0.176669	0.176669	0	0	1	-360	360
41	3516	0.0631375	0.00450962	0	0.069282	0.069282	0.069282	0	0	1	-360	360
42	4964	0.0405213	0.0077925	0	0.176669	0.176669	0.176669	0	0	1	-360	360
43	1883	0.131231	0.00937375	0	0.069282	0.069282	0.069282	0	0	1	-360	360
44	1890	0.0346325	0.00666	0	0.176669	0.176669	0.176669	0	0	1	-360	360
45	3927	0.169569	0.0121119	0	0.069282	0.069282	0.069282	0	0	1	-360	360
46	5274	0.063325	0.00452337	0	0.069282	0.069282	0.069282	0	0	1	-360	360
47	3815	0.111731	0.00798062	0	0.069282	0.069282	0.069282	0	0	1	-360	360
48	3226	0.141706	0.0101219	0	0.069282	0.069282	0.069282	0	0	1	-360	360
49	5037	0.0345206	0.00663875	0	0.176669	0.176669	0.176669	0	0	1	-360	360
50	2967	0.152144	0.0108675	0	0.069282	0.069282	0.069282	0	0	1	-360	360
51	1427	0.126294	0.00902062	0	0.069282	0.069282	0.069282	0	0	1	-360	360
595	1393	0.09825	0.00701813	0	0.069282	0.069282	0.069282	0	0	1	-360	360
916	4737	0.0394675	0.00759	0	0.176669	0.176669	0.176669	0	0	1	-360	360
52	4795	0.127137	0.00908125	0	0.069282	0.069282	0.069282	0	0	1	-360	360
53	2719	0.06047	0.0116288	0	0.176669	0.176669	0.176669	0	0	1	-360	360
54	1297	0.1225	0.00875	0	0.069282	0.069282	0.069282	0	0	1	-360	360
55	2560	0.151131	0.010795	0	0.069282	0.069282	0.069282	0	0	1	-360	360
56	4854	0.131231	0.00937375	0	0.069282	0.069282	0.069282	0	0	1	-360	360
57	2841	0.0307125	0.00219375	0	0.069282	0.069282	0.069282	0	0	1	-360	360
58	602	0.151244	0.0108031	0	0.069282	0.069282	0.069282	0	0	1	-360	360
59	5379	0.154544	0.0482944	0	0.159349	0.159349	0.159349	0	0	1	-360	360
60	260	0.397556	0.0611619	0	0.103923	0.103923	0.103923	0	0	1	-360	360
61	2836	0.151131	0.010795	0	0.069282	0.069282	0.069282	0	0	1	-360	360
62	4071	0.111731	0.00798062	0	0.069282	0.069282	0.069282	0	0	1	-360	360
63	3187	0.0393825	0.00757375	0	0.176669	0.176669	0.176669	0	0	1	-360	360
64	1864	0.0472481	0.00908625	0	0.176669	0.176669	0.176669	0	0	1	-360	360
65	5380	4.00E-05	2.00E-05	0	0.159349	0.159349	0.159349	0	0	1	-360	360
66	2413	0.0403594	0.00776125	0	0.176669	0.176669	0.176669	0	0	1	-360	360
67	737	0.0710062	0.02219	0	0.159349	0.159349	0.159349	0	0	1	-360	360
68	2793	0.063325	0.00452337	0	0.069282	0.069282	0.069282	0	0	1	-360	360
69	2617	0.0342225	0.00658125	0	0.176669	0.176669	0.176669	0	0	1	-360	360
70	4992	0.0423656	0.0081475	0	0.176669	0.176669	0.176669	0	0	1	-360	360
71	5381	0.290187	0.055805	0	0.176669	0.176669	0.176669	0	0	1	-360	360
72	800	0.0829	0.00592138	0	0.069282	0.069282	0.069282	0	0	1	-360	360
73	3804	0.090725	0.0174463	0	0.176669	0.176669	0.176669	0	0	1	-360	360
74	3355	0.0547031	0.01052	0	0.176669	0.176669	0.176669	0	0	1	-360	360
75	5149	0.0286362	0.005507	0	0.176669	0.176669	0.176669	0	0	1	-360	360
76	4224	0.0307869	0.00592056	0	0.176669	0.176669	0.176669	0	0	1	-360	360
77	3828	0.302619	0.0216156	0	0.069282	0.069282	0.069282	0	0	1	-360	360
78	533	0.0299325	0.00575625	0	0.176669	0.176669	0.176669	0	0	1	-360	360
79	5382	4.00E-05	2.00E-05	0	0.290985	0.290985	0.290985	0	0	1	-360	360
80	1376	0.0387481	0.00745125	0	0.176669	0.176669	0.176669	0	0	1	-360	360
81	4979	0.0542756	0.0104375	0	0.176669	0.176669	0.176669	0	0	1	-360	360
82	4750	0.0686375	0.00490256	0	0.069282	0.069282	0.069282	0	0	1	-360	360
83	5253	0.252025	0.0180019	0	0.069282	0.069282	0.069282	0	0	1	-360	360
84	1593	0.141519	0.0101081	0	0.069282	0.069282	0.069282	0	0	1	-360	360
85	4590	0.102925	0.015835	0	0.103923	0.103923	0.103923	0	0	1	-360	360
86	2651	0.141519	0.0101081	0	0.069282	0.069282	0.069282	0	0	1	-360	360
87	2240	0.0421425	0.00810438	0	0.176669	0.176669	0.176669	0	0	1	-360	360
88	4753	0.0368244	0.00708187	0	0.176669	0.176669	0.176669	0	0	1	-360	360
89	3969	0.0309437	0.00595075	0	0.176669	0.176669	0.176669	0	0	1	-360	360
90	125	0.0435056	0.00836625	0	0.176669	0.176669	0.176669	0	0	1	-360	360
91	1038	0.249887	0.0178494	0	0.069282	0.069282	0.069282	0	0	1	-360	360
92	817	0.0221425	0.00691937	0	0.159349	0.159349	0.159349	0	0	1	-360	360
93	778	0.251488	0.0179638	0	0.069282	0.069282	0.069282	0	0	1	-360	360
94	4323	0.184787	0.0131994	0	0.069282	0.069282	0.069282	0	0	1	-360	360
95	3644	0.042715	0.00821437	0	0.176669	0.176669	0.176669	0	0	1	-360	360
96	877	0.179556	0.0128256	0	0.069282	0.069282	0.069282	0	0	1	-360	360
97	306	0.0383925	0.00738312	0	0.176669	0.176669	0.176669	0	0	1	-360	360
98	4550	0.0345025	0.006635	0	0.176669	0.176669	0.176669	0	0	1	-360	360
99	3619	0.045415	0.00698688	0	0.103923	0.103923	0.103923	0	0	1	-360	360
100	2835	0.154	0.011	0	0.069282	0.069282	0.069282	0	0	1	-360	360
101	3288	0.18465	0.0131894	0	0.069282	0.069282	0.069282	0	0	1	-360	360
102	4702	0.126613	0.00904375	0	0.069282	0.069282	0.069282	0	0	1	-360	360
103	34	0.107625	0.0076875	0	0.069282	0.069282	0.069282	0	0	1	-360	360
104	3007	0.0311781	0.00599581	0	0.176669	0.176669	0.176669	0	0	1	-360	360
105	4201	0.034125	0.0065625	0	0.176669	0.176669	0.176669	0	0	1	-360	360
106	1292	0.0436206	0.00838875	0	0.176669	0.176669	0.176669	0	0	1	-360	360
107	899	0.04278	0.0133687	0	0.159349	0.159349	0.159349	0	0	1	-360	360
108	1106	0.0301112	0.00579056	0	0.176669	0.176669	0.176669	0	0	1	-360	360
109	2874	0.0461237	0.00887	0	0.176669	0.176669	0.176669	0	0	1	-360	360
110	3931	0.0300419	0.00577731	0	0.176669	0.176669	0.176669	0	0	1	-360	360
111	2118	0.119762	0.00855437	0	0.069282	0.069282	0.069282	0	0	1	-360	360
112	651	0.0478331	0.00919875	0	0.176669	0.176669	0.176669	0	0	1	-360	360
113	1272	0.179638	0.0128313	0	0.069282	0.069282	0.069282	0	0	1	-360	360
114	1049	0.0377887	0.0118094	0	0.159349	0.159349	0.159349	0	0	1	-360	360
26	5383	0.142044	0.0443881	0	0.159349	0.159349	0.159349	0	0	1	-360	360
27	266	0.154763	0.0110544	0	0.069282	0.069282	0.069282	0	0	1	-360	360
28	2159	0.184787	0.0131994	0	0.069282	0.069282	0.069282	0	0	1	-360	360
29	967	0.03424	0.00244569	0	0.069282	0.069282	0.069282	0	0	1	-360	360
30	1652	0.0343094	0.00659812	0	0.176669	0.176669	0.176669	0	0	1	-360	360
31	3650	0.12285	0.008775	0	0.069282	0.069282	0.069282	0	0	1	-360	360
32	5258	0.034125	0.0065625	0	0.176669	0.176669	0.176669	0	0	1	-360	360
33	4510	0.038175	0.00734125	0	0.176669	0.176669	0.176669	0	0	1	-360	360
34	5195	0.0480075	0.00342912	0	0.069282	0.069282	0.069282	0	0	1	-360	360
928	250	0.165325	0.0118094	0	0.069282	0.069282	0.069282	0	0	1	-360	360
929	1434	0.145462	0.01039	0	0.069282	0.069282	0.069282	0	0	1	-360	360
930	4699	0.02675	0.00835937	0	0.159349	0.159349	0.159349	0	0	1	-360	360
931	3405	0.0358113	0.0111913	0	0.159349	0.159349	0.159349	0	0	1	-360	360
932	104	0.0299325	0.00575625	0	0.176669	0.176669	0.176669	0	0	1	-360	360
933	350	0.0255819	0.00799437	0	0.159349	0.159349	0.159349	0	0	1	-360	360
934	5384	0.0411581	0.0235194	0	0.290985	0.290985	0.290985	0	0	1	-360	360
935	3618	0.0323137	0.0100981	0	0.159349	0.159349	0.159349	0	0	1	-360	360
936	2603	0.145462	0.01039	0	0.069282	0.069282	0.069282	0	0	1	-360	360
937	2462	0.0631562	0.00451119	0	0.069282	0.069282	0.069282	0	0	1	-360	360
938	1655	0.0472256	0.00908187	0	0.176669	0.176669	0.176669	0	0	1	-360	360
939	4856	0.156587	0.011185	0	0.069282	0.069282	0.069282	0	0	1	-360	360
940	4378	0.154281	0.01102	0	0.069282	0.069282	0.069282	0	0	1	-360	360
941	1922	0.0255819	0.00799437	0	0.159349	0.159349	0.159349	0	0	1	-360	360
942	4245	0.01052	0.0032875	0	0.159349	0.159349	0.159349	0	0	1	-360	360
943	3962	0.0511875	0.00984375	0	0.176669	0.176669	0.176669	0	0	1	-360	360
944	2433	0.0344544	0.00662562	0	0.176669	0.176669	0.176669	0	0	1	-360	360
945	1316	0.00977	0.005583	0	0.290985	0.290985	0.290985	0	0	1	-360	360
966	5385	0.0477131	0.00917562	0	0.176669	0.176669	0.176669	0	0	1	-360	360
967	747	0.144819	0.0103444	0	0.069282	0.069282	0.069282	0	0	1	-360	360
968	673	0.0970937	0.006935	0	0.069282	0.069282	0.069282	0	0	1	-360	360
969	418	0.0572513	0.01101	0	0.176669	0.176669	0.176669	0	0	1	-360	360
970	5386	0.0912	0.0285006	0	0.159349	0.159349	0.159349	0	0	1	-360	360
971	2400	0.0497831	0.00957375	0	0.176669	0.176669	0.176669	0	0	1	-360	360
972	5135	0.0362469	0.00697063	0	0.176669	0.176669	0.176669	0	0	1	-360	360
973	5332	0.139106	0.00993625	0	0.069282	0.069282	0.069282	0	0	1	-360	360
974	80	0.0446163	0.00858	0	0.176669	0.176669	0.176669	0	0	1	-360	360
975	1199	0.138162	0.00986875	0	0.069282	0.069282	0.069282	0	0	1	-360	360
976	3703	0.0311244	0.0059855	0	0.176669	0.176669	0.176669	0	0	1	-360	360
977	4833	0.0570019	0.0109619	0	0.176669	0.176669	0.176669	0	0	1	-360	360
978	3615	0.130925	0.00935188	0	0.069282	0.069282	0.069282	0	0	1	-360	360
979	96	0.144987	0.0103563	0	0.069282	0.069282	0.069282	0	0	1	-360	360
980	50	0.141375	0.0100981	0	0.069282	0.069282	0.069282	0	0	1	-360	360
981	2968	0.0867438	0.006196	0	0.069282	0.069282	0.069282	0	0	1	-360	360
982	1144	0.0520137	0.0100025	0	0.176669	0.176669	0.176669	0	0	1	-360	360
983	5387	0.0126612	0.007235	0	0.290985	0.290985	0.290985	0	0	1	-360	360
984	4423	0.0477244	0.0091775	0	0.176669	0.176669	0.176669	0	0	1	-360	360
985	3799	0.0487213	0.00936937	0	0.176669	0.176669	0.176669	0	0	1	-360	360
946	3701	0.0326075	0.00627062	0	0.176669	0.176669	0.176669	0	0	1	-360	360
947	5102	0.0256669	0.00493594	0	0.176669	0.176669	0.176669	0	0	1	-360	360
948	508	0.145462	0.01039	0	0.069282	0.069282	0.069282	0	0	1	-360	360
949	4741	0.126825	0.00905875	0	0.069282	0.069282	0.069282	0	0	1	-360	360
950	5161	0.0518975	0.00998	0	0.176669	0.176669	0.176669	0	0	1	-360	360
951	322	0.0581588	0.0111844	0	0.176669	0.176669	0.176669	0	0	1	-360	360
952	460	0.0212944	0.00409506	0	0.176669	0.176669	0.176669	0	0	1	-360	360
953	5388	0.125556	0.0392369	0	0.159349	0.159349	0.159349	0	0	1	-360	360
954	5389	0.0717062	0.0137894	0	0.176669	0.176669	0.176669	0	0	1	-360	360
955	2364	0.0341981	0.00657625	0	0.176669	0.176669	0.176669	0	0	1	-360	360
956	1378	0.117031	0.00835937	0	0.069282	0.069282	0.069282	0	0	1	-360	360
957	374	0.185231	0.0132306	0	0.069282	0.069282	0.069282	0	0	1	-360	360
958	3887	0.042405	0.0132512	0	0.159349	0.159349	0.159349	0	0	1	-360	360
959	134	0.03658	0.00703437	0	0.176669	0.176669	0.176669	0	0	1	-360	360
960	3903	0.0187625	0.00586337	0	0.159349	0.159349	0.159349	0	0	1	-360	360
961	650	0.112056	0.00800375	0	0.069282	0.069282	0.069282	0	0	1	-360	360
962	161	0.0170869	0.00328594	0	0.176669	0.176669	0.176669	0	0	1	-360	360
963	581	0.033305	0.0104081	0	0.159349	0.159349	0.159349	0	0	1	-360	360
964	4699	0.1863	0.0133069	0	0.069282	0.069282	0.069282	0	0	1	-360	360
965	4792	0.141519	0.0101081	0	0.069282	0.069282	0.069282	0	0	1	-360	360
986	3658	0.145462	0.01039	0	0.069282	0.069282	0.069282	0	0	1	-360	360
987	3619	0.822812	0.126587	0	0.103923	0.103923	0.103923	0	0	1	-360	360
988	1463	0.137038	0.00978813	0	0.069282	0.069282	0.069282	0	0	1	-360	360
989	1820	0.0529106	0.010175	0	0.176669	0.176669	0.176669	0	0	1	-360	360
990	4610	0.0171112	0.00329062	0	0.176669	0.176669	0.176669	0	0	1	-360	360
991	1533	0.139094	0.00993563	0	0.069282	0.069282	0.069282	0	0	1	-360	360
992	450	0.0141619	0.0080925	0	0.290985	0.290985	0.290985	0	0	1	-360	360
993	2596	0.0405981	0.0078075	0	0.176669	0.176669	0.176669	0	0	1	-360	360
994	1142	0.0345206	0.00663875	0	0.176669	0.176669	0.176669	0	0	1	-360	360
995	4329	0.0970937	0.006935	0	0.069282	0.069282	0.069282	0	0	1	-360	360
996	451	0.0738063	0.0141938	0	0.176669	0.176669	0.176669	0	0	1	-360	360
997	160	0.0653375	0.00466694	0	0.069282	0.069282	0.069282	0	0	1	-360	360
998	5063	0.218181	0.0155844	0	0.069282	0.069282	0.069282	0	0	1	-360	360
999	3625	0.0410675	0.0128338	0	0.159349	0.159349	0.159349	0	0	1	-360	360
1000	3289	0.0166138	0.00949375	0	0.290985	0.290985	0.290985	0	0	1	-360	360
1001	3715	0.154281	0.01102	0	0.069282	0.069282	0.069282	0	0	1	-360	360
1002	3324	0.126525	0.0090375	0	0.069282	0.069282	0.069282	0	0	1	-360	360
1003	4955	0.0341981	0.00657625	0	0.176669	0.176669	0.176669	0	0	1	-360	360
1004	3177	0.0273513	0.00525987	0	0.176669	0.176669	0.176669	0	0	1	-360	360
1005	2755	0.0698687	0.0107488	0	0.103923	0.103923	0.103923	0	0	1	-360	360
6	2275	0.0686375	0.00490256	0	0.069282	0.069282	0.069282	0	0	1	-360	360
7	4760	0.0685188	0.00489419	0	0.069282	0.069282	0.069282	0	0	1	-360	360
8	270	0.0387481	0.00745125	0	0.176669	0.176669	0.176669	0	0	1	-360	360
9	2973	0.00853125	0.00164062	0	0.176669	0.176669	0.176669	0	0	1	-360	360
10	2422	0.0299325	0.00575625	0	0.176669	0.176669	0.176669	0	0	1	-360	360
11	1099	0.200119	0.0142944	0	0.069282	0.069282	0.069282	0	0	1	-360	360
12	2271	0.03921	0.0122531	0	0.159349	0.159349	0.159349	0	0	1	-360	360
13	3215	0.0300144	0.00937938	0	0.159349	0.159349	0.159349	0	0	1	-360	360
14	2739	0.0299325	0.00575625	0	0.176669	0.176669	0.176669	0	0	1	-360	360
15	3581	0.187831	0.0134162	0	0.069282	0.069282	0.069282	0	0	1	-360	360
16	1166	0.0429	0.00825	0	0.176669	0.176669	0.176669	0	0	1	-360	360
17	1712	0.0270244	0.005197	0	0.176669	0.176669	0.176669	0	0	1	-360	360
18	517	0.171644	0.0122606	0	0.069282	0.069282	0.069282	0	0	1	-360	360
19	3844	0.0829	0.00592138	0	0.069282	0.069282	0.069282	0	0	1	-360	360
20	2693	0.0394512	0.00758687	0	0.176669	0.176669	0.176669	0	0	1	-360	360
21	4525	0.0287131	0.00552169	0	0.176669	0.176669	0.176669	0	0	1	-360	360
...
];
